nrt/data/IEEE14/IEEE14_BasicTestCases/IEEE14_StartFromDump/IEEE14.iidm
<?xml version="1.0" encoding="UTF-8"?>
<!--
    Copyright (c) 2015-2020, RTE (http://www.rte-france.com)
    See AUTHORS.txt
    All rights reserved.
    This Source Code Form is subject to the terms of the Mozilla Public
    License, v. 2.0. If a copy of the MPL was not distributed with this
    file, you can obtain one at http://mozilla.org/MPL/2.0/.
    SPDX-License-Identifier: MPL-2.0

    This file is part of Dynawo, a hybrid C++/Modelica open source time domain
    simulation tool for power systems.
-->
<iidm:network xmlns:iidm="http://www.itesla_project.eu/schema/iidm/1_0" id="ieee14bus" caseDate="2017-06-09T10:14:24.146+02:00" forecastDistance="0" sourceFormat="CIM1">
    <iidm:substation id="_BUS___10_SS" name="BUS   10_SS" country="AF" geographicalTags="_SGR_01">
        <iidm:voltageLevel id="_BUS___10_VL" name="BUS   10_VL" nominalV="13.8" topologyKind="BUS_BREAKER">
            <iidm:busBreakerTopology>
                <iidm:bus id="_BUS___10_TN" v="14.5036" angle="-15.0972"/>
            </iidm:busBreakerTopology>
            <iidm:load id="_LOAD__10_EC" name="LOAD  10" loadType="UNDEFINED" p0="9.0" q0="5.8" bus="_BUS___10_TN" connectableBus="_BUS___10_TN" p="9.0" q="5.8"/>
        </iidm:voltageLevel>
    </iidm:substation>
    <iidm:substation id="_BUS___11_SS" name="BUS   11_SS" country="AF" geographicalTags="_SGR_01">
        <iidm:voltageLevel id="_BUS___11_VL" name="BUS   11_VL" nominalV="13.8" topologyKind="BUS_BREAKER">
            <iidm:busBreakerTopology>
                <iidm:bus id="_BUS___11_TN" v="14.5853" angle="-14.7906"/>
            </iidm:busBreakerTopology>
            <iidm:load id="_LOAD__11_EC" name="LOAD  11" loadType="UNDEFINED" p0="3.5" q0="1.8" bus="_BUS___11_TN" connectableBus="_BUS___11_TN" p="3.5" q="1.8"/>
        </iidm:voltageLevel>
    </iidm:substation>
    <iidm:substation id="_BUS___12_SS" name="BUS   12_SS" country="AF" geographicalTags="_SGR_01">
        <iidm:voltageLevel id="_BUS___12_VL" name="BUS   12_VL" nominalV="13.8" topologyKind="BUS_BREAKER">
            <iidm:busBreakerTopology>
                <iidm:bus id="_BUS___12_TN" v="14.5616" angle="-15.0755"/>
            </iidm:busBreakerTopology>
            <iidm:load id="_LOAD__12_EC" name="LOAD  12" loadType="UNDEFINED" p0="6.1" q0="1.6" bus="_BUS___12_TN" connectableBus="_BUS___12_TN" p="6.1" q="1.6"/>
        </iidm:voltageLevel>
    </iidm:substation>
    <iidm:substation id="_BUS___13_SS" name="BUS   13_SS" country="AF" geographicalTags="_SGR_01">
        <iidm:voltageLevel id="_BUS___13_VL" name="BUS   13_VL" nominalV="13.8" topologyKind="BUS_BREAKER">
            <iidm:busBreakerTopology>
                <iidm:bus id="_BUS___13_TN" v="14.4952" angle="-15.15652"/>
            </iidm:busBreakerTopology>
            <iidm:load id="_LOAD__13_EC" name="LOAD  13" loadType="UNDEFINED" p0="13.5" q0="5.8" bus="_BUS___13_TN" connectableBus="_BUS___13_TN" p="13.5" q="5.8"/>
        </iidm:voltageLevel>
    </iidm:substation>
    <iidm:substation id="_BUS___14_SS" name="BUS   14_SS" country="AF" geographicalTags="_SGR_01">
        <iidm:voltageLevel id="_BUS___14_VL" name="BUS   14_VL" nominalV="13.8" topologyKind="BUS_BREAKER">
            <iidm:busBreakerTopology>
                <iidm:bus id="_BUS___14_TN" v="14.306159" angle="-16.0336"/>
            </iidm:busBreakerTopology>
            <iidm:load id="_LOAD__14_EC" name="LOAD  14" loadType="UNDEFINED" p0="14.9" q0="5.0" bus="_BUS___14_TN" connectableBus="_BUS___14_TN" p="14.9" q="5.0"/>
        </iidm:voltageLevel>
    </iidm:substation>
    <iidm:substation id="_BUS___15_SS" name="BUS   15_SS" country="AF" geographicalTags="_SGR_01">
        <iidm:voltageLevel id="_BUS___15_VL" name="BUS   15_VL" nominalV="13.8" topologyKind="BUS_BREAKER">
            <iidm:busBreakerTopology>
                <iidm:bus id="_BUS___15_TN" v="14.306159" angle="-16.0336"/>
            </iidm:busBreakerTopology>
        </iidm:voltageLevel>
    </iidm:substation>
    <iidm:substation id="_BUS____1_SS" name="BUS    1_SS" country="AF" geographicalTags="_SGR_01">
        <iidm:voltageLevel id="_BUS____1_VL" name="BUS    1_VL" nominalV="69.0" topologyKind="BUS_BREAKER">
            <iidm:busBreakerTopology>
                <iidm:bus id="_BUS____1_TN" v="73.14" angle="0.0"/>
            </iidm:busBreakerTopology>
            <iidm:generator id="_GEN____1_SM" name="GEN    1" energySource="OTHER" minP="-9999.0" maxP="9999.0" voltageRegulatorOn="true" targetP="232.3463" targetV="73.14" targetQ="-16.759" bus="_BUS____1_TN" connectableBus="_BUS____1_TN" p="-232.39" q="16.55">
                <iidm:minMaxReactiveLimits minQ="-999.0" maxQ="999.0"/>
            </iidm:generator>
        </iidm:voltageLevel>
    </iidm:substation>
    <iidm:substation id="_BUS____2_SS" name="BUS    2_SS" country="AF" geographicalTags="_SGR_01">
        <iidm:voltageLevel id="_BUS____2_VL" name="BUS    2_VL" nominalV="69.0" topologyKind="BUS_BREAKER">
            <iidm:busBreakerTopology>
                <iidm:bus id="_BUS____2_TN" v="72.11" angle="-4.98"/>
            </iidm:busBreakerTopology>
            <iidm:generator id="_GEN____2_SM" name="GEN    2" energySource="OTHER" minP="-9999.0" maxP="9999.0" voltageRegulatorOn="true" targetP="40.0" targetV="72.105" targetQ="42.4" bus="_BUS____2_TN" connectableBus="_BUS____2_TN" p="-40.0" q="-43.56">
                <iidm:minMaxReactiveLimits minQ="-40.0" maxQ="50.0"/>
            </iidm:generator>
            <iidm:load id="_LOAD___2_EC" name="LOAD   2" loadType="UNDEFINED" p0="21.7" q0="12.7" bus="_BUS____2_TN" connectableBus="_BUS____2_TN" p="21.7" q="12.7"/>
        </iidm:voltageLevel>
    </iidm:substation>
    <iidm:substation id="_BUS____3_SS" name="BUS    3_SS" country="AF" geographicalTags="_SGR_01">
        <iidm:voltageLevel id="_BUS____3_VL" name="BUS    3_VL" nominalV="69.0" topologyKind="BUS_BREAKER">
            <iidm:busBreakerTopology>
                <iidm:bus id="_BUS____3_TN" v="69.69" angle="-12.73"/>
            </iidm:busBreakerTopology>
            <iidm:generator id="_GEN____3_SM" name="GEN    3" energySource="OTHER" minP="-9999.0" maxP="9999.0" voltageRegulatorOn="true" targetP="0.0" targetV="69.69" targetQ="23.4" bus="_BUS____3_TN" connectableBus="_BUS____3_TN" p="-0.0" q="-25.07">
                <iidm:minMaxReactiveLimits minQ="0.0" maxQ="40.0"/>
            </iidm:generator>
            <iidm:load id="_LOAD___3_EC" name="LOAD   3" loadType="UNDEFINED" p0="94.2" q0="19.0" bus="_BUS____3_TN" connectableBus="_BUS____3_TN" p="94.2" q="19.0"/>
        </iidm:voltageLevel>
    </iidm:substation>
    <iidm:substation id="_BUS____4_SS" name="BUS    4_SS" country="AF" geographicalTags="_SGR_01">
        <iidm:voltageLevel id="_BUS____9_VL" name="BUS    9_VL" nominalV="13.8" topologyKind="BUS_BREAKER">
            <iidm:busBreakerTopology>
                <iidm:bus id="_BUS____9_TN" v="14.5719" angle="-14.9385"/>
            </iidm:busBreakerTopology>
            <iidm:load id="_LOAD___9_EC" name="LOAD   9" loadType="UNDEFINED" p0="29.5" q0="16.6" bus="_BUS____9_TN" connectableBus="_BUS____9_TN" p="29.5" q="16.6"/>
            <iidm:shunt id="_BANK___9_SC" name="BANK   9" bPerSection="0.099769" maximumSectionCount="1" currentSectionCount="1" bus="_BUS____9_TN" connectableBus="_BUS____9_TN" q="-21.256718"/>
        </iidm:voltageLevel>
        <iidm:voltageLevel id="_BUS____7_VL" name="BUS    7_VL" nominalV="13.8" topologyKind="BUS_BREAKER">
            <iidm:busBreakerTopology>
                <iidm:bus id="_BUS____7_TN" v="14.649" angle="-13.3596"/>
            </iidm:busBreakerTopology>
        </iidm:voltageLevel>
        <iidm:voltageLevel id="_BUS____4_VL" name="BUS    4_VL" nominalV="69.0" topologyKind="BUS_BREAKER">
            <iidm:busBreakerTopology>
                <iidm:bus id="_BUS____4_TN" v="70.2193" angle="-10.3129"/>
            </iidm:busBreakerTopology>
            <iidm:load id="_LOAD___4_EC" name="LOAD   4" loadType="UNDEFINED" p0="47.8" q0="-3.9" bus="_BUS____4_TN" connectableBus="_BUS____4_TN" p="47.8" q="-3.9"/>
        </iidm:voltageLevel>
        <iidm:twoWindingsTransformer id="_BUS____4-BUS____9-1_PT" name="BUS    4-BUS    9-1" r="0.0" x="1.0591881" g="0.0" b="0.0" ratedU1="69.0" ratedU2="13.8" bus1="_BUS____4_TN" connectableBus1="_BUS____4_TN" voltageLevelId1="_BUS____4_VL" bus2="_BUS____9_TN" connectableBus2="_BUS____9_TN" voltageLevelId2="_BUS____9_VL" p1="16.299362" q1="1.270369" p2="-16.299362" q2="0.050373">
            <iidm:ratioTapChanger lowTapPosition="1" tapPosition="4" regulating="false" loadTapChangingCapabilities="false">
                <iidm:step r="0.0" x="0.0" g="0.0" b="0.0" rho="1.1111112"/>
                <iidm:step r="0.0" x="0.0" g="0.0" b="0.0" rho="1.0834236"/>
                <iidm:step r="0.0" x="0.0" g="0.0" b="0.0" rho="1.0570825"/>
                <iidm:step r="0.0" x="0.0" g="0.0" b="0.0" rho="1.0319917"/>
                <iidm:step r="0.0" x="0.0" g="0.0" b="0.0" rho="1.0157440"/>
                <iidm:step r="0.0" x="0.0" g="0.0" b="0.0" rho="1.0"/>
                <iidm:step r="0.0" x="0.0" g="0.0" b="0.0" rho="0.9803922"/>
                <iidm:step r="0.0" x="0.0" g="0.0" b="0.0" rho="0.9615385"/>
                <iidm:step r="0.0" x="0.0" g="0.0" b="0.0" rho="0.9433963"/>
                <iidm:step r="0.0" x="0.0" g="0.0" b="0.0" rho="0.9259259"/>
                <iidm:step r="0.0" x="0.0" g="0.0" b="0.0" rho="0.9090909"/>
            </iidm:ratioTapChanger>
            <iidm:currentLimits1 permanentLimit="836.74"/>
            <iidm:currentLimits2 permanentLimit="4183.7"/>
        </iidm:twoWindingsTransformer>
        <iidm:twoWindingsTransformer id="_BUS____4-BUS____7-1_PT" name="BUS    4-BUS    7-1" r="0.0" x="0.39824802" g="0.0" b="0.0" ratedU1="69.0" ratedU2="13.8" bus1="_BUS____4_TN" connectableBus1="_BUS____4_TN" voltageLevelId1="_BUS____4_VL" bus2="_BUS____7_TN" connectableBus2="_BUS____7_TN" voltageLevelId2="_BUS____7_VL" p1="28.129929" q1="-10.561864" p2="-28.129929" q2="12.3099">
            <iidm:ratioTapChanger lowTapPosition="1" tapPosition="5" regulating="false" loadTapChangingCapabilities="false">
                <iidm:step r="0.0" x="0.0" g="0.0" b="0.0" rho="1.1111112"/>
                <iidm:step r="0.0" x="0.0" g="0.0" b="0.0" rho="1.0875476"/>
                <iidm:step r="0.0" x="0.0" g="0.0" b="0.0" rho="1.0649627"/>
                <iidm:step r="0.0" x="0.0" g="0.0" b="0.0" rho="1.0432966"/>
                <iidm:step r="0.0" x="0.0" g="0.0" b="0.0" rho="1.0224948"/>
                <iidm:step r="0.0" x="0.0" g="0.0" b="0.0" rho="1.0"/>
                <iidm:step r="0.0" x="0.0" g="0.0" b="0.0" rho="0.98039216"/>
                <iidm:step r="0.0" x="0.0" g="0.0" b="0.0" rho="0.9615385"/>
                <iidm:step r="0.0" x="0.0" g="0.0" b="0.0" rho="0.9433963"/>
                <iidm:step r="0.0" x="0.0" g="0.0" b="0.0" rho="0.9259259"/>
                <iidm:step r="0.0" x="0.0" g="0.0" b="0.0" rho="0.9090909"/>
            </iidm:ratioTapChanger>
            <iidm:currentLimits1 permanentLimit="836.74"/>
            <iidm:currentLimits2 permanentLimit="4183.7"/>
        </iidm:twoWindingsTransformer>
    </iidm:substation>
    <iidm:substation id="_BUS____5_SS" name="BUS    5_SS" country="AF" geographicalTags="_SGR_01">
        <iidm:voltageLevel id="_BUS____6_VL" name="BUS    6_VL" nominalV="13.8" topologyKind="BUS_BREAKER">
            <iidm:busBreakerTopology>
                <iidm:bus id="_BUS____6_TN" v="14.77" angle="-14.22"/>
            </iidm:busBreakerTopology>
            <iidm:generator id="_GEN____6_SM" name="GEN    6" energySource="OTHER" minP="-9999.0" maxP="9999.0" voltageRegulatorOn="true" targetP="0.0" targetV="14.766" targetQ="12.2" bus="_BUS____6_TN" connectableBus="_BUS____6_TN" p="-0.0" q="-12.73">
                <iidm:minMaxReactiveLimits minQ="-6.0" maxQ="24.0"/>
            </iidm:generator>
            <iidm:load id="_LOAD___6_EC" name="LOAD   6" loadType="UNDEFINED" p0="11.2" q0="7.5" bus="_BUS____6_TN" connectableBus="_BUS____6_TN" p="11.2" q="7.5"/>
        </iidm:voltageLevel>
        <iidm:voltageLevel id="_BUS____5_VL" name="BUS    5_VL" nominalV="69.0" topologyKind="BUS_BREAKER">
            <iidm:busBreakerTopology>
                <iidm:bus id="_BUS____5_TN" v="70.3464" angle="-8.77381"/>
            </iidm:busBreakerTopology>
            <iidm:load id="_LOAD___5_EC" name="LOAD   5" loadType="UNDEFINED" p0="7.6" q0="1.6" bus="_BUS____5_TN" connectableBus="_BUS____5_TN" p="7.6" q="1.6"/>
        </iidm:voltageLevel>
        <iidm:twoWindingsTransformer id="_BUS____5-BUS____6-1_PT" name="BUS    5-BUS    6-1" r="0.0" x="0.47994804" g="0.0" b="0.0" ratedU1="69.0" ratedU2="13.8" bus1="_BUS____5_TN" connectableBus1="_BUS____5_TN" voltageLevelId1="_BUS____5_VL" bus2="_BUS____6_TN" connectableBus2="_BUS____6_TN" voltageLevelId2="_BUS____6_VL" p1="43.804256" q1="9.096129" p2="-43.804256" q2="-4.821185">
            <iidm:ratioTapChanger lowTapPosition="1" tapPosition="3" regulating="false" loadTapChangingCapabilities="false">
                <iidm:step r="0.0" x="0.0" g="0.0" b="0.0" rho="1.1111112"/>
                <iidm:step r="0.0" x="0.0" g="0.0" b="0.0" rho="1.0917031"/>
                <iidm:step r="0.0" x="0.0" g="0.0" b="0.0" rho="1.0729614"/>
                <iidm:step r="0.0" x="0.0" g="0.0" b="0.0" rho="1.0474860"/>
                <iidm:step r="0.0" x="0.0" g="0.0" b="0.0" rho="1.0231924"/>
                <iidm:step r="0.0" x="0.0" g="0.0" b="0.0" rho="1.0"/>
                <iidm:step r="0.0" x="0.0" g="0.0" b="0.0" rho="0.9803922"/>
                <iidm:step r="0.0" x="0.0" g="0.0" b="0.0" rho="0.9615385"/>
                <iidm:step r="0.0" x="0.0" g="0.0" b="0.0" rho="0.9433963"/>
                <iidm:step r="0.0" x="0.0" g="0.0" b="0.0" rho="0.9259259"/>
                <iidm:step r="0.0" x="0.0" g="0.0" b="0.0" rho="0.9090909"/>
            </iidm:ratioTapChanger>
            <iidm:currentLimits1 permanentLimit="836.74"/>
            <iidm:currentLimits2 permanentLimit="4183.7"/>
        </iidm:twoWindingsTransformer>
    </iidm:substation>
    <iidm:substation id="_BUS____8_SS" name="BUS    8_SS" country="AF" geographicalTags="_SGR_01">
        <iidm:voltageLevel id="_BUS____8_VL" name="BUS    8_VL" nominalV="13.8" topologyKind="BUS_BREAKER">
            <iidm:busBreakerTopology>
                <iidm:bus id="_BUS____8_TN" v="15.04" angle="-13.36"/>
            </iidm:busBreakerTopology>
            <iidm:generator id="_GEN____8_SM" name="GEN    8" energySource="OTHER" minP="-9999.0" maxP="9999.0" voltageRegulatorOn="true" targetP="0.0" targetV="15.042" targetQ="17.4" bus="_BUS____8_TN" connectableBus="_BUS____8_TN" p="-0.0" q="-17.62">
                <iidm:minMaxReactiveLimits minQ="-6.0" maxQ="24.0"/>
            </iidm:generator>
        </iidm:voltageLevel>
    </iidm:substation>
    <iidm:line id="_BUS___10-BUS___11-1_AC" name="BUS   10-BUS   11-1" r="0.156256" x="0.365778" g1="0.0" b1="0.0" g2="0.0" b2="0.0" bus1="_BUS___10_TN" connectableBus1="_BUS___10_TN" voltageLevelId1="_BUS___10_VL" bus2="_BUS___11_TN" connectableBus2="_BUS___11_TN" voltageLevelId2="_BUS___11_VL" p1="-3.628976" q1="-1.291152" p2="3.639966" q2="1.316878">
        <iidm:currentLimits1 permanentLimit="4183.7"/>
    </iidm:line>
    <iidm:line id="_BUS___12-BUS___13-1_AC" name="BUS   12-BUS   13-1" r="0.42072" x="0.380651" g1="0.0" b1="0.0" g2="0.0" b2="0.0" bus1="_BUS___12_TN" connectableBus1="_BUS___12_TN" voltageLevelId1="_BUS___12_VL" bus2="_BUS___13_TN" connectableBus2="_BUS___13_TN" voltageLevelId2="_BUS___13_VL" p1="1.584024" q1="0.715153" p2="-1.578033" q2="-0.709732">
        <iidm:currentLimits1 permanentLimit="4183.7"/>
    </iidm:line>
    <iidm:line id="_BUS___13-BUS___14-1_AC" name="BUS   13-BUS   14-1" r="0.325519" x="0.662769" g1="0.0" b1="0.0" g2="0.0" b2="0.0" bus1="_BUS___13_TN" connectableBus1="_BUS___13_TN" voltageLevelId1="_BUS___13_VL" bus2="_BUS___14_TN" connectableBus2="_BUS___14_TN" voltageLevelId2="_BUS___14_VL" p1="5.526893" q1="1.540022" p2="-5.47592" q2="-1.43624">
        <iidm:currentLimits1 permanentLimit="4183.7"/>
    </iidm:line>
    <iidm:line id="_BUS____1-BUS____2-1_AC" name="BUS    1-BUS    2-1" r="0.922682" x="2.81708" g1="0.0" b1="5.54505E-4" g2="0.0" b2="5.54505E-4" bus1="_BUS____1_TN" connectableBus1="_BUS____1_TN" voltageLevelId1="_BUS____1_VL" bus2="_BUS____2_TN" connectableBus2="_BUS____2_TN" voltageLevelId2="_BUS____2_VL" p1="156.78983" q1="-20.382833" p2="-152.49738" q2="27.639011">
        <iidm:currentLimits1 permanentLimit="836.74"/>
    </iidm:line>
    <iidm:line id="_BUS____1-BUS____5-1_AC" name="BUS    1-BUS    5-1" r="2.57237" x="10.6189" g1="0.0" b1="5.167E-4" g2="0.0" b2="5.167E-4" bus1="_BUS____1_TN" connectableBus1="_BUS____1_TN" voltageLevelId1="_BUS____1_VL" bus2="_BUS____5_TN" connectableBus2="_BUS____5_TN" voltageLevelId2="_BUS____5_VL" p1="75.579735" q1="3.118322" p2="-72.81625" q2="2.96058">
        <iidm:currentLimits1 permanentLimit="836.74"/>
    </iidm:line>
    <iidm:line id="_BUS____2-BUS____3-1_AC" name="BUS    2-BUS    3-1" r="2.23719" x="9.42535" g1="0.0" b1="4.599875E-4" g2="0.0" b2="4.599875E-4" bus1="_BUS____2_TN" connectableBus1="_BUS____2_TN" voltageLevelId1="_BUS____2_VL" bus2="_BUS____3_TN" connectableBus2="_BUS____3_TN" voltageLevelId2="_BUS____3_VL" p1="73.19019" q1="3.564935" p2="-70.86989" q2="1.58502">
        <iidm:currentLimits1 permanentLimit="836.74"/>
    </iidm:line>
    <iidm:line id="_BUS____2-BUS____4-1_AC" name="BUS    2-BUS    4-1" r="2.76662" x="8.3946" g1="0.0" b1="3.57068E-4" g2="0.0" b2="3.57068E-4" bus1="_BUS____2_TN" connectableBus1="_BUS____2_TN" voltageLevelId1="_BUS____2_VL" bus2="_BUS____4_TN" connectableBus2="_BUS____4_TN" voltageLevelId2="_BUS____4_VL" p1="56.126595" q1="-2.020396" p2="-54.450264" q2="3.486913">
        <iidm:currentLimits1 permanentLimit="836.74"/>
    </iidm:line>
    <iidm:line id="_BUS____2-BUS____5-1_AC" name="BUS    2-BUS    5-1" r="2.71139" x="8.27843" g1="0.0" b1="3.63369E-4" g2="0.0" b2="3.63369E-4" bus1="_BUS____2_TN" connectableBus1="_BUS____2_TN" voltageLevelId1="_BUS____2_VL" bus2="_BUS____5_TN" connectableBus2="_BUS____5_TN" voltageLevelId2="_BUS____5_VL" p1="41.48059" q1="0.250869" p2="-40.580875" q2="-1.196797">
        <iidm:currentLimits1 permanentLimit="836.74"/>
    </iidm:line>
    <iidm:line id="_BUS____3-BUS____4-1_AC" name="BUS    3-BUS    4-1" r="3.19035" x="8.14274" g1="0.0" b1="1.344255E-4" g2="0.0" b2="1.344255E-4" bus1="_BUS____3_TN" connectableBus1="_BUS____3_TN" voltageLevelId1="_BUS____3_VL" bus2="_BUS____4_TN" connectableBus2="_BUS____4_TN" voltageLevelId2="_BUS____4_VL" p1="-23.330109" q1="4.002362" p2="23.701889" q2="-4.37021">
        <iidm:currentLimits1 permanentLimit="836.74"/>
    </iidm:line>
    <iidm:line id="_BUS____4-BUS____5-1_AC" name="BUS    4-BUS    5-1" r="0.635593" x="2.00486" g1="0.0" b1="0.0" g2="0.0" b2="0.0" bus1="_BUS____4_TN" connectableBus1="_BUS____4_TN" voltageLevelId1="_BUS____4_VL" bus2="_BUS____5_TN" connectableBus2="_BUS____5_TN" voltageLevelId2="_BUS____5_VL" p1="-61.48091" q1="14.074792" p2="61.99287" q2="-12.459913">
        <iidm:currentLimits1 permanentLimit="836.74"/>
    </iidm:line>
    <iidm:line id="_BUS____6-BUS___11-1_AC" name="BUS    6-BUS   11-1" r="0.18088" x="0.378785" g1="0.0" b1="0.0" g2="0.0" b2="0.0" bus1="_BUS____6_TN" connectableBus1="_BUS____6_TN" voltageLevelId1="_BUS____6_VL" bus2="_BUS___11_TN" connectableBus2="_BUS___11_TN" voltageLevelId2="_BUS___11_VL" p1="7.191498" q1="3.224791" p2="-7.139966" q2="-3.116878">
        <iidm:currentLimits1 permanentLimit="4183.7"/>
    </iidm:line>
    <iidm:line id="_BUS____6-BUS___12-1_AC" name="BUS    6-BUS   12-1" r="0.23407" x="0.487165" g1="0.0" b1="0.0" g2="0.0" b2="0.0" bus1="_BUS____6_TN" connectableBus1="_BUS____6_TN" voltageLevelId1="_BUS____6_VL" bus2="_BUS___12_TN" connectableBus2="_BUS___12_TN" voltageLevelId2="_BUS___12_VL" p1="7.755102" q1="2.463086" p2="-7.684024" q2="-2.315153">
        <iidm:currentLimits1 permanentLimit="4183.7"/>
    </iidm:line>
    <iidm:line id="_BUS____6-BUS___13-1_AC" name="BUS    6-BUS   13-1" r="0.125976" x="0.248086" g1="0.0" b1="0.0" g2="0.0" b2="0.0" bus1="_BUS____6_TN" connectableBus1="_BUS____6_TN" voltageLevelId1="_BUS____6_VL" bus2="_BUS___13_TN" connectableBus2="_BUS___13_TN" voltageLevelId2="_BUS___13_VL" p1="17.657656" q1="7.041473" p2="-17.44886" q2="-6.630291">
        <iidm:currentLimits1 permanentLimit="4183.7"/>
    </iidm:line>
    <iidm:line id="_BUS____7-BUS____8-1_AC" name="BUS    7-BUS    8-1" r="0.0" x="0.33546" g1="0.0" b1="0.0" g2="0.0" b2="0.0" bus1="_BUS____7_TN" connectableBus1="_BUS____7_TN" voltageLevelId1="_BUS____7_VL" bus2="_BUS____8_TN" connectableBus2="_BUS____8_TN" voltageLevelId2="_BUS____8_VL" p1="-0.0" q1="-16.861053" p2="0.0" q2="17.305046">
        <iidm:currentLimits1 permanentLimit="4183.7"/>
    </iidm:line>
    <iidm:line id="_BUS____7-BUS____9-1_AC" name="BUS    7-BUS    9-1" r="0.0" x="0.209503" g1="0.0" b1="0.0" g2="0.0" b2="0.0" bus1="_BUS____7_TN" connectableBus1="_BUS____7_TN" voltageLevelId1="_BUS____7_VL" bus2="_BUS____9_TN" connectableBus2="_BUS____9_TN" voltageLevelId2="_BUS____9_VL" p1="28.129929" q1="4.551154" p2="-28.129929" q2="-3.759173">
        <iidm:currentLimits1 permanentLimit="4183.7"/>
    </iidm:line>
    <iidm:line id="_BUS____9-BUS___10-1_AC" name="BUS    9-BUS   10-1" r="0.060579" x="0.160922" g1="0.0" b1="0.0" g2="0.0" b2="0.0" bus1="_BUS____9_TN" connectableBus1="_BUS____9_TN" voltageLevelId1="_BUS____9_VL" bus2="_BUS___10_TN" connectableBus2="_BUS___10_TN" voltageLevelId2="_BUS___10_VL" p1="5.385146" q1="4.546363" p2="-5.371024" q2="-4.508848">
        <iidm:currentLimits1 permanentLimit="4183.7"/>
    </iidm:line>
    <iidm:line id="_BUS____9-BUS___14-1_AC" name="BUS    9-BUS   14-1" r="0.242068" x="0.514912" g1="0.0" b1="0.0" g2="0.0" b2="0.0" bus1="_BUS____9_TN" connectableBus1="_BUS____9_TN" voltageLevelId1="_BUS____9_VL" bus2="_BUS___14_TN" connectableBus2="_BUS___14_TN" voltageLevelId2="_BUS___14_VL" p1="9.544144" q1="3.819154" p2="-9.42408" q2="-3.56376">
        <iidm:currentLimits1 permanentLimit="4183.7"/>
    </iidm:line>
</iidm:network>
